.include "myInclude.jsim"

* Four Way Multiplexer
* Only time vdd comes out is if both are 0
Xtest clk1 clk2 vdd 0 0 0 out mux4

.tran 20ns
.plot clk1
.plot clk2
.plot out