.include "myInclude.jsim"

Wa a[31:0] nrz(0, 5, 10ns, 0ns, 0.1ns, 0.1ns)
+ 1 3 5 -1 -3 -5

Wb b[31:0] nrz(0, 5, 10ns, 0ns, 0.1ns, 0.1ns)
+ 2 4 6 -2 -4 -6

* Clock 1 32 times
Xlol clk1 clk2 clk3 co s FA

.tran 60ns
.plot clk1
.plot clk2
.plot a[31:0]
.plot b[31:0]
.plot out[31:0]